Version 4.1
SHEET 1 1404 712
WIRE 144 -464 -752 -464
WIRE 144 -416 144 -464
WIRE -48 -272 -464 -272
WIRE 144 -272 144 -336
WIRE 144 -272 -48 -272
WIRE 240 -272 144 -272
WIRE 544 -272 240 -272
WIRE 672 -272 544 -272
WIRE 784 -272 672 -272
WIRE 672 -256 672 -272
WIRE -464 -160 -464 -272
WIRE 672 -160 672 -176
WIRE 544 -112 544 -272
WIRE 272 -80 -352 -80
WIRE 672 -64 672 -80
WIRE 784 -48 784 -272
WIRE -464 -16 -464 -80
WIRE -464 -16 -592 -16
WIRE -352 -16 -352 -80
WIRE -352 -16 -464 -16
WIRE -16 0 -144 0
WIRE 240 0 240 -272
WIRE 240 0 208 0
WIRE 544 32 544 -48
WIRE 672 32 672 16
WIRE 672 32 544 32
WIRE -592 48 -592 -16
WIRE -352 48 -352 -16
WIRE 672 48 672 32
WIRE 672 48 576 48
WIRE -16 64 -80 64
WIRE 272 64 272 -80
WIRE 272 64 208 64
WIRE -16 128 -112 128
WIRE 304 128 208 128
WIRE 400 128 352 128
WIRE 528 128 480 128
WIRE -592 160 -592 112
WIRE -512 160 -592 160
WIRE -352 160 -352 112
WIRE -352 160 -432 160
WIRE -48 192 -48 -272
WIRE -16 192 -48 192
WIRE 240 192 208 192
WIRE -480 240 -480 208
WIRE -304 240 -480 240
WIRE -80 240 -80 64
WIRE -80 240 -304 240
WIRE -480 272 -480 240
WIRE -112 272 -112 128
WIRE 352 272 352 128
WIRE 352 272 -112 272
WIRE -304 320 -304 240
WIRE 304 320 304 128
WIRE 304 320 -304 320
WIRE -144 384 -144 0
WIRE -144 384 -288 384
WIRE -16 384 -144 384
WIRE 576 384 576 144
WIRE 576 384 -16 384
WIRE 784 384 784 16
WIRE 784 384 576 384
WIRE -480 400 -480 336
WIRE -288 400 -288 384
WIRE -288 400 -480 400
WIRE -288 416 -288 400
WIRE -752 448 -752 -464
WIRE -16 448 -16 384
WIRE -16 448 -752 448
FLAG -288 416 0
SYMBOL Misc\\NE555 96 96 R0
SYMATTR InstName U1
SYMBOL diode -608 48 R0
SYMATTR InstName D1
SYMATTR Value 1N4001
SYMBOL diode -336 112 R180
WINDOW 0 24 64 Left 2
WINDOW 3 24 0 Left 2
SYMATTR InstName D2
SYMATTR Value 1N4001
SYMBOL res -480 -176 R0
SYMATTR InstName R2
SYMATTR Value 1k
SYMBOL cap -464 336 R180
WINDOW 0 24 56 Left 2
WINDOW 3 24 8 Left 2
SYMATTR InstName C1
SYMATTR Value 100n
SYMBOL nmos 528 48 R0
SYMATTR InstName M1
SYMATTR Value IRFZ44N
SYMBOL res 496 112 R90
WINDOW 0 0 56 VBottom 2
WINDOW 3 32 56 VTop 2
SYMATTR InstName R3
SYMATTR Value 100
SYMBOL diode 560 -48 R180
WINDOW 0 24 64 Left 2
WINDOW 3 24 0 Left 2
SYMATTR InstName D3
SYMATTR Value 1N4001
SYMBOL cap 768 -48 R0
SYMATTR InstName C2
SYMATTR Value 10µ
SYMBOL pot -416 144 R90
WINDOW 0 48 -1 VRight 2
WINDOW 3 37 81 VRight 2
SYMATTR InstName U2
SYMATTR Value Rtot=47K wiper=.5
SYMBOL voltage 144 -320 R180
WINDOW 0 24 96 Left 2
WINDOW 3 24 16 Left 2
SYMATTR InstName V1
SYMATTR Value 12V
SYMBOL ind 656 -272 R0
SYMATTR InstName L1
SYMATTR Value 1m
SYMBOL res 656 -176 R0
SYMATTR InstName R1
SYMATTR Value 5
SYMBOL voltage 672 -80 R0
SYMATTR InstName V2
SYMATTR Value 8
TEXT 48 0 Left 2 ;1
TEXT 56 64 Left 2 ;2
TEXT 48 128 Left 2 ;3
TEXT 48 192 Left 2 ;4
TEXT 144 192 Left 2 ;5
TEXT 120 128 Left 2 ;6
TEXT 136 64 Left 2 ;7
TEXT 144 0 Left 2 ;8
TEXT -440 472 Left 2 !.model 1N4001 D(Is=14.11n N=1.984 Rs=33.89m Ikf=94.81 Xti=3 Eg=1.11 Cjo=25.89p\n+ M=.44 Vj=.3245 Fc=.5 Bv=75 Ibv=10u Tt=5.7u Iave=1 Vpk=50 mfg=GI type=silicon)
TEXT -120 552 Left 2 !.tran 50m
TEXT -312 584 Left 2 !.subckt pot 1 2 3\n.param w=limit(wiper,1m,.999)\nR1 1 2 {Rtot*(1-w)}\nR2 2 3 {Rtot*w}\n.ends
